14
Coordinates from ORCA-job inp E -344.758466530550
  C      -2.891328     -0.283393     -0.119695
  C      -2.098441      0.910651      0.311716
  H      -3.562713     -0.590139      0.688738
  H      -2.218836     -1.125867     -0.316893
  H      -3.467244     -0.033280     -1.009669
  O       0.075027     -1.883519      0.430609
  C       0.829825     -1.143436     -0.524844
  H       0.224408     -0.377591     -1.035114
  H       1.182880     -1.855463     -1.275257
  H       1.705313     -0.654028     -0.073665
  O      -2.089800      1.998344     -0.207500
  O      -1.338985      0.634351      1.420860
  H      -0.868845      1.454991      1.639428
  H      -0.244972     -1.257161      1.091556
14
Coordinates from ORCA-job inp E -344.758466581918
  C      -2.891372     -0.283408     -0.119711
  C      -2.098286      0.910554      0.311643
  H      -3.562706     -0.590099      0.688807
  H      -2.218891     -1.125888     -0.316849
  H      -3.467301     -0.033391     -1.009689
  O       0.074974     -1.883424      0.430663
  C       0.829763     -1.143339     -0.524831
  H       0.224320     -0.377500     -1.035144
  H       1.182785     -1.855368     -1.275253
  H       1.705226     -0.653901     -0.073646
  O      -2.089348      1.998232     -0.207616
  O      -1.338949      0.634147      1.420850
  H      -0.868905      1.454867      1.639485
  H      -0.245020     -1.257024      1.091560
