14
Coordinates from ORCA-job inp E -344.767596949424
  C      -3.911452     -0.281840     -0.076558
  C      -2.548917      0.308708      0.148238
  H      -4.033215     -1.179483      0.536819
  H      -4.016226     -0.586029     -1.122262
  H      -4.674226      0.452977      0.178060
  O      -1.581893     -0.574187     -0.150356
  C      -0.222460     -0.107868      0.029276
  H      -0.027366      0.758623     -0.607641
  H       0.408984     -0.948076     -0.258568
  H      -0.046781      0.168543      1.072015
  O      -2.340399      1.436996      0.547610
  O       0.136152      2.918053      1.105091
  H      -0.062691      3.805207      1.416004
  H      -0.732601      2.514976      0.953873
14
Coordinates from ORCA-job inp E -344.767596961431
  C      -3.911460     -0.281863     -0.076563
  C      -2.548938      0.308723      0.148242
  H      -4.033179     -1.179561      0.536735
  H      -4.016255     -0.585938     -1.122298
  H      -4.674271      0.452889      0.178133
  O      -1.581910     -0.574186     -0.150307
  C      -0.222480     -0.107863      0.029300
  H      -0.027371      0.758590     -0.607661
  H       0.408965     -0.948076     -0.258537
  H      -0.046765      0.168524      1.072038
  O      -2.340415      1.437021      0.547566
  O       0.136211      2.918084      1.105097
  H      -0.062679      3.805238      1.415997
  H      -0.732543      2.515017      0.953859
