14
Coordinates from ORCA-job inp E -344.767596931000
  C      -3.911419     -0.281793     -0.076543
  C      -2.548865      0.308684      0.148234
  H      -4.033232     -1.179383      0.536904
  H      -4.016176     -0.586099     -1.122216
  H      -4.674127      0.453114      0.178007
  O      -1.581862     -0.574221     -0.150419
  C      -0.222443     -0.107895      0.029243
  H      -0.027380      0.758651     -0.607617
  H       0.409004     -0.948092     -0.258604
  H      -0.046818      0.168560      1.071986
  O      -2.340356      1.436979      0.547661
  O       0.136033      2.918009      1.105079
  H      -0.062735      3.805176      1.416009
  H      -0.732714      2.514910      0.953877
14
Coordinates from ORCA-job inp E -344.767596953145
  C      -3.911452     -0.281840     -0.076558
  C      -2.548917      0.308708      0.148238
  H      -4.033215     -1.179483      0.536819
  H      -4.016226     -0.586029     -1.122262
  H      -4.674226      0.452977      0.178060
  O      -1.581893     -0.574187     -0.150356
  C      -0.222460     -0.107868      0.029276
  H      -0.027366      0.758623     -0.607641
  H       0.408984     -0.948076     -0.258568
  H      -0.046781      0.168543      1.072015
  O      -2.340399      1.436996      0.547610
  O       0.136152      2.918053      1.105091
  H      -0.062691      3.805207      1.416004
  H      -0.732601      2.514976      0.953873
