14
Coordinates from ORCA-job inp E -344.696266270578
  C      -1.866868     -0.271108      0.083954
  C      -0.621996      0.456860     -0.294506
  H      -1.936729     -0.408955      1.162032
  H      -1.833713     -1.249039     -0.405214
  H      -2.728340      0.290907     -0.287719
  O       0.647850     -0.588253      0.407533
  C       1.772562     -0.757011     -0.448765
  H       1.629084     -0.185962     -1.375324
  H       1.882852     -1.820117     -0.692557
  H       2.685634     -0.404006      0.043027
  O      -0.319702      1.002275     -1.308191
  O      -0.162520      1.366069      1.198372
  H       0.268589      2.158417      0.848327
  H       0.583298      0.409923      1.069031
14
Coordinates from ORCA-job inp E -344.696498171037
  C      -1.874691     -0.268461      0.088368
  C      -0.623846      0.441546     -0.303617
  H      -1.926866     -0.420570      1.165225
  H      -1.871969     -1.239255     -0.415191
  H      -2.731271      0.316295     -0.257016
  O       0.646794     -0.595996      0.399216
  C       1.783175     -0.752179     -0.444850
  H       1.650954     -0.173245     -1.369163
  H       1.900759     -1.812235     -0.694816
  H       2.688568     -0.400468      0.063341
  O      -0.327012      0.987053     -1.318442
  O      -0.161786      1.360129      1.189283
  H       0.268483      2.150281      0.833499
  H       0.578709      0.407106      1.064163
14
Coordinates from ORCA-job inp E -344.696682336144
  C      -1.877949     -0.267619      0.091462
  C      -0.626710      0.436568     -0.308091
  H      -1.914509     -0.438060      1.166162
  H      -1.897866     -1.228875     -0.429648
  H      -2.732067      0.335085     -0.227995
  O       0.646039     -0.602062      0.398420
  C       1.788405     -0.748462     -0.439507
  H       1.662103     -0.162422     -1.360340
  H       1.910449     -1.806150     -0.696699
  H       2.688931     -0.399031      0.079111
  O      -0.330163      0.973975     -1.327118
  O      -0.163205      1.359610      1.177511
  H       0.269864      2.146566      0.818076
  H       0.576678      0.400878      1.058655
14
Coordinates from ORCA-job inp E -344.696843064492
  C      -1.880093     -0.267751      0.094019
  C      -0.627469      0.428043     -0.313853
  H      -1.901102     -0.457404      1.165881
  H      -1.922825     -1.218401     -0.444909
  H      -2.731014      0.352864     -0.198762
  O       0.642776     -0.607289      0.396426
  C       1.791772     -0.744623     -0.434387
  H       1.671304     -0.151809     -1.351685
  H       1.918116     -1.799993     -0.698479
  H       2.687435     -0.397617      0.094442
  O      -0.331903      0.960139     -1.335758
  O      -0.162150      1.360387      1.168572
  H       0.272494      2.143783      0.803289
  H       0.572661      0.399671      1.055203
14
Coordinates from ORCA-job inp E -344.697043787298
  C      -1.882747     -0.267986      0.097392
  C      -0.629665      0.419294     -0.320922
  H      -1.881420     -0.487653      1.163671
  H      -1.957153     -1.201014     -0.468219
  H      -2.728869      0.376592     -0.155153
  O       0.639878     -0.614163      0.396695
  C       1.796392     -0.739625     -0.426300
  H       1.682528     -0.137978     -1.338724
  H       1.927981     -1.791792     -0.700158
  H       2.686003     -0.396254      0.114947
  O      -0.334274      0.941330     -1.347940
  O      -0.162588      1.362647      1.153682
  H       0.275745      2.140820      0.781752
  H       0.568189      0.395781      1.049277
14
Coordinates from ORCA-job inp E -344.697254883744
  C      -1.886399     -0.268724      0.102049
  C      -0.631897      0.403716     -0.332417
  H      -1.852988     -0.534489      1.157202
  H      -2.009050     -1.172294     -0.501764
  H      -2.722194      0.409839     -0.088836
  O       0.635140     -0.623089      0.396298
  C       1.802855     -0.732288     -0.414461
  H       1.698765     -0.118138     -1.319684
  H       1.941519     -1.779707     -0.702154
  H       2.683691     -0.394839      0.144629
  O      -0.337568      0.912771     -1.365955
  O      -0.162395      1.366530      1.133207
  H       0.280116      2.137036      0.750478
  H       0.560405      0.393675      1.041408
14
Coordinates from ORCA-job inp E -344.697370035354
  C      -1.891204     -0.269838      0.107602
  C      -0.635938      0.386069     -0.346497
  H      -1.818461     -0.598802      1.142747
  H      -2.076892     -1.128714     -0.543527
  H      -2.709004      0.448008      0.000378
  O       0.632182     -0.632317      0.398812
  C       1.811803     -0.723473     -0.398504
  H       1.719027     -0.093957     -1.294357
  H       1.957055     -1.764871     -0.703899
  H       2.682871     -0.395291      0.180846
  O      -0.342125      0.875942     -1.389040
  O      -0.164543      1.372738      1.105042
  H       0.283573      2.133640      0.710000
  H       0.551657      0.390866      1.030396
14
Coordinates from ORCA-job inp E -344.697376172236
  C      -1.892013     -0.270438      0.107873
  C      -0.636139      0.383407     -0.348251
  H      -1.815125     -0.607036      1.140285
  H      -2.084269     -1.123803     -0.548631
  H      -2.707611      0.451151      0.010393
  O       0.633169     -0.630949      0.399416
  C       1.813250     -0.723203     -0.397056
  H       1.722406     -0.092082     -1.291961
  H       1.956510     -1.764332     -0.704262
  H       2.684515     -0.397814      0.183595
  O      -0.342624      0.872033     -1.391289
  O      -0.165085      1.374375      1.103348
  H       0.282213      2.134854      0.706587
  H       0.550801      0.393837      1.029950
14
Coordinates from ORCA-job inp E -344.697382576476
  C      -1.891969     -0.271414      0.107906
  C      -0.636715      0.383253     -0.349072
  H      -1.810310     -0.616587      1.137141
  H      -2.089582     -1.118745     -0.554789
  H      -2.706276      0.452877      0.021003
  O       0.636057     -0.627689      0.402520
  C       1.814456     -0.723859     -0.395374
  H       1.725799     -0.090311     -1.288875
  H       1.952389     -1.764910     -0.705441
  H       2.687694     -0.403907      0.185220
  O      -0.342577      0.868853     -1.393167
  O      -0.168046      1.377334      1.100693
  H       0.278176      2.137954      0.703066
  H       0.550903      0.397151      1.029170
14
Coordinates from ORCA-job inp E -344.697385699162
  C      -1.891339     -0.272538      0.107985
  C      -0.636321      0.381825     -0.349879
  H      -1.807096     -0.622228      1.135481
  H      -2.091903     -1.116689     -0.557909
  H      -2.704792      0.453345      0.026729
  O       0.637544     -0.624524      0.403843
  C       1.814829     -0.724574     -0.394705
  H       1.729292     -0.087979     -1.286376
  H       1.947322     -1.765414     -0.707861
  H       2.689907     -0.410734      0.186499
  O      -0.342353      0.866842     -1.394184
  O      -0.169882      1.379713      1.100118
  H       0.274247      2.140818      0.701059
  H       0.550546      0.402135      1.029201
14
Coordinates from ORCA-job inp E -344.697388671201
  C      -1.890503     -0.273670      0.108144
  C      -0.636516      0.382649     -0.349708
  H      -1.804610     -0.625458      1.134781
  H      -2.091661     -1.116455     -0.559295
  H      -2.704349      0.452078      0.029634
  O       0.639663     -0.621313      0.406239
  C       1.815023     -0.725481     -0.394115
  H       1.732979     -0.084522     -1.283034
  H       1.940759     -1.765787     -0.711950
  H       2.692504     -0.419659      0.187650
  O      -0.342273      0.866090     -1.394701
  O      -0.172499      1.382068      1.098595
  H       0.270045      2.143866      0.699108
  H       0.551440      0.405596      1.028652
14
Coordinates from ORCA-job inp E -344.697393561957
  C      -1.889131     -0.275950      0.108858
  C      -0.636066      0.381314     -0.350095
  H      -1.801348     -0.629229      1.134814
  H      -2.091307     -1.117724     -0.559565
  H      -2.703243      0.449794      0.032943
  O       0.642118     -0.616073      0.408749
  C       1.815280     -0.726531     -0.393394
  H       1.741558     -0.075137     -1.275472
  H       1.928183     -1.764877     -0.722332
  H       2.696444     -0.437955      0.191606
  O      -0.342470      0.863661     -1.395777
  O      -0.175552      1.385997      1.096674
  H       0.263066      2.148932      0.694965
  H       0.552466      0.413777      1.028026
14
Coordinates from ORCA-job inp E -344.697401156215
  C      -1.886974     -0.279710      0.110548
  C      -0.636257      0.381143     -0.349845
  H      -1.797146     -0.631776      1.136744
  H      -2.088011     -1.122466     -0.556953
  H      -2.703031      0.443901      0.034954
  O       0.646355     -0.608383      0.414040
  C       1.815563     -0.727705     -0.391935
  H       1.757269     -0.055578     -1.259545
  H       1.905462     -1.760796     -0.743984
  H       2.702358     -0.472296      0.199707
  O      -0.343468      0.859631     -1.397660
  O      -0.180476      1.392493      1.091335
  H       0.252787      2.156929      0.686654
  H       0.555568      0.424616      1.025941
14
Coordinates from ORCA-job inp E -344.697408755347
  C      -1.885260     -0.283274      0.112755
  C      -0.636185      0.378964     -0.350227
  H      -1.794165     -0.631992      1.139982
  H      -2.084991     -1.128393     -0.552142
  H      -2.702942      0.438343      0.035423
  O       0.649189     -0.602295      0.417827
  C       1.815870     -0.727867     -0.390565
  H       1.774508     -0.033754     -1.241661
  H       1.883748     -1.753721     -0.767893
  H       2.706403     -0.507163      0.209211
  O      -0.345053      0.854295     -1.400024
  O      -0.183563      1.398327      1.085989
  H       0.244578      2.163617      0.677434
  H       0.557863      0.434913      1.023892
14
Coordinates from ORCA-job inp E -344.697416661800
  C      -1.883774     -0.286609      0.115234
  C      -0.636418      0.377027     -0.350548
  H      -1.791902     -0.630395      1.144058
  H      -2.081297     -1.135200     -0.545880
  H      -2.703406      0.432434      0.034522
  O       0.651595     -0.597293      0.421598
  C       1.816086     -0.727417     -0.389111
  H       1.792256     -0.011026     -1.222171
  H       1.862623     -1.744334     -0.793030
  H       2.709096     -0.542342      0.218772
  O      -0.346889      0.848506     -1.402627
  O      -0.186006      1.403824      1.079934
  H       0.237962      2.169434      0.667630
  H       0.560074      0.443392      1.021619
14
Coordinates from ORCA-job inp E -344.697427431580
  C      -1.881903     -0.291316      0.119328
  C      -0.636781      0.373277     -0.351298
  H      -1.789623     -0.625690      1.151219
  H      -2.075472     -1.146423     -0.534514
  H      -2.704432      0.423591      0.031509
  O       0.654299     -0.591337      0.426728
  C       1.816287     -0.725759     -0.386910
  H       1.819802      0.023761     -1.190483
  H       1.832225     -1.726274     -0.832129
  H       2.710813     -0.595239      0.232532
  O      -0.349818      0.838708     -1.406897
  O      -0.188421      1.411528      1.070445
  H       0.230298      2.176798      0.652191
  H       0.562725      0.454376      1.018280
14
Coordinates from ORCA-job inp E -344.697439082703
  C      -1.880279     -0.296282      0.124576
  C      -0.637353      0.368098     -0.352415
  H      -1.788795     -0.616477      1.161028
  H      -2.068022     -1.161011     -0.518224
  H      -2.706244      0.413131      0.025174
  O       0.656309     -0.586772      0.432376
  C       1.816309     -0.722334     -0.384256
  H       1.852597      0.064899     -1.149781
  H       1.798894     -1.699137     -0.879397
  H       2.709624     -0.656589      0.246790
  O      -0.353309      0.825608     -1.412380
  O      -0.189595      1.419675      1.058640
  H       0.224976      2.183237      0.633246
  H       0.564888      0.463955      1.014625
14
Coordinates from ORCA-job inp E -344.697452397315
  C      -1.878843     -0.301905      0.131441
  C      -0.638414      0.361000     -0.354347
  H      -1.788863     -0.602472      1.173891
  H      -2.059038     -1.179612     -0.495763
  H      -2.708900      0.400262      0.016026
  O       0.657803     -0.582875      0.438557
  C       1.816466     -0.716889     -0.380824
  H       1.894955      0.113474     -1.095570
  H       1.760813     -1.658539     -0.937463
  H       2.704376     -0.731730      0.260714
  O      -0.358080      0.808047     -1.419843
  O      -0.189992      1.429012      1.043552
  H       0.221485      2.189201      0.609298
  H       0.566232      0.473025      1.010330
14
Coordinates from ORCA-job inp E -344.697462027786
  C      -1.876815     -0.310281      0.142423
  C      -0.640442      0.349714     -0.357977
  H      -1.788847     -0.579595      1.193568
  H      -2.045677     -1.207834     -0.459351
  H      -2.713017      0.380020      0.002522
  O       0.659602     -0.577201      0.447490
  C       1.816942     -0.707509     -0.375109
  H       1.965218      0.180019     -1.004435
  H       1.706136     -1.582932     -1.023911
  H       2.688857     -0.848873      0.272490
  O      -0.365716      0.779327     -1.432129
  O      -0.190799      1.442984      1.019304
  H       0.217644      2.196831      0.571495
  H       0.566914      0.485329      1.003621
14
Coordinates from ORCA-job inp E -344.697466228734
  C      -1.877218     -0.309488      0.142334
  C      -0.640036      0.348912     -0.358205
  H      -1.789791     -0.578209      1.193671
  H      -2.046919     -1.207261     -0.458851
  H      -2.712623      0.381663      0.001838
  O       0.658917     -0.578977      0.447417
  C       1.816458     -0.706584     -0.375085
  H       1.961272      0.180842     -1.005515
  H       1.708373     -1.583186     -1.022684
  H       2.689772     -0.843531      0.271654
  O      -0.363975      0.777159     -1.432484
  O      -0.190259      1.441762      1.019456
  H       0.220432      2.194595      0.572002
  H       0.565599      0.482302      1.004453
14
Coordinates from ORCA-job inp E -344.697468398731
  C      -1.877540     -0.309669      0.143208
  C      -0.640206      0.347280     -0.358927
  H      -1.790303     -0.575570      1.195275
  H      -2.047305     -1.209076     -0.455531
  H      -2.712812      0.381231      0.000752
  O       0.658587     -0.579848      0.447737
  C       1.816506     -0.705155     -0.374560
  H       1.965135      0.186255     -0.998430
  H       1.706309     -1.576618     -1.028664
  H       2.688735     -0.849459      0.272015
  O      -0.364202      0.773548     -1.433979
  O      -0.189897      1.442236      1.017503
  H       0.222358      2.193690      0.569184
  H       0.564634      0.481155      1.004415
